
.param sky130_fd_pr__pnp_05v5_W3p40L3p40__bf_slope = 0.0
.param sky130_fd_pr__pnp_05v5_W3p40L3p40__is_slope = 0.0
.param sky130_fd_pr__pnp_05v5_W3p40L3p40__xti_slope = 0.0
.param sky130_fd_pr__model__parasitic__diode_ps2nw__pjunction_mult = 9.8954e-01 
.param sky130_fd_pr__model__parasitic__diode_ps2nw__ajunction_mult = 9.8286e-01
.param sky130_fd_pr__pfet_01v8__ajunction_mult = 9.9626e-1
.param sky130_fd_pr__pfet_01v8__pjunction_mult = 1.0009e+0
.param dkbfpp5x = 1.1288e+00 
.param dkispp5x = 1.0046e+00 
.param dknfpp5x = 1.0009e+00
.param dkisepp5x = 0.745
.param  mult = 1.0

+ sky130_fd_pr__pnp_05v5_W3p40L3p40__bf_mm = '(16.603*dkbfpp5x*sky130_fd_pr__pnp_05v5_W3p40L3p40__bf_slope*0.45/sqrt(mult))'
+ sky130_fd_pr__pnp_05v5_W3p40L3p40__is_mm = '(7.1190e-018*1.00*dkispp5x*sky130_fd_pr__pnp_05v5_W3p40L3p40__is_slope*0.13/sqrt(mult))'
+ sky130_fd_pr__pnp_05v5_W3p40L3p40__xti_mm = '(5*sky130_fd_pr__pnp_05v5_W3p40L3p40__xti_slope/sqrt(mult))'
.model pnp_05v5_W3p40L3p40 pnp level = 1.0
* General Parameters
+ tref = 30 subs = 1.0
* Capacitance Parameters
+ cjc = '9.155e-17*5.17*5.17*sky130_fd_pr__model__parasitic__diode_ps2nw__ajunction_mult+5.822e-16*4*5.17*sky130_fd_pr__model__parasitic__diode_ps2nw__pjunction_mult' cje = '7.4079e-16*3.4*3.4*sky130_fd_pr__pfet_01v8__ajunction_mult+9.88e-17*4*3.4*sky130_fd_pr__pfet_01v8__pjunction_mult' cjs = 0.0
+ fc = 0.5 mjc = 0.24 mje = 0.3 mjs = 0.24
+ vjc = 0.54 vje = 0.74 vjs = 0.54 xcjc = 1.0
+ ptf = 0 tf = 6.15385e-010 tr = 5e-008 vtf = 1.0e-12
+ xtf = 0.0
* Noise Parameters
+ af = 1.30180 kf = 4.9435066e-11
* DC Parameters
+ is = '7.1190e-018*dkispp5x+sky130_fd_pr__pnp_05v5_W3p40L3p40__is_mm' rb = 73.32 re = 5.3848 irb = 0.0002
+ rc = 100.0 rbm = 25.19 bf = '16.603*dkbfpp5x+sky130_fd_pr__pnp_05v5_W3p40L3p40__bf_mm' nf = '1.000*dknfpp5x'
+ vaf = 111.6 ikf = 0.00038589 ise = '1.0310e-015*dkisepp5x' ne = 1.64
+ ns = 1 br = 0.2675 iss = 0 nr = 1.0
+ var = 4.3 ikr = 0.0043 nkf = 0.426 isc = 1.9855e-15
+ nc = 1.000
* Temperature Parameters
+ xtb = 1.692 xti = '5.0+sky130_fd_pr__pnp_05v5_W3p40L3p40__xti_mm' eg = 1.125 tnf1 = 5.972e-6
+ tikf1 = -0.002456 tnf2 = -3.0e-8